
  PyMOL2.1          3D                             0

  6  6  0  0  0  0  0  0  0  0999 V2000
   16.7060    3.4620   14.6760 C   0  0  0  0  0  0  0  0  0  0  0  0
   18.0480    3.9210   14.6600 C   0  0  0  0  0  0  0  0  0  0  0  0
   18.4420    5.2100   14.1920 C   0  0  0  0  0  0  0  0  0  0  0  0
   17.3440    5.9500   13.6530 C   0  0  0  0  0  0  0  0  0  0  0  0
   16.0150    5.4960   13.6580 C   0  0  0  0  0  0  0  0  0  0  0  0
   15.6810    4.2780   14.2290 C   0  0  0  0  0  0  0  0  0  0  0  0
  1  2  2  0  0  0  0
  1  6  1  0  0  0  0
  2  3  1  0  0  0  0
  3  4  2  0  0  0  0
  4  5  1  0  0  0  0
  5  6  2  0  0  0  0
M  END
$$$$
